# generated using pymatgen
data_ZnH28C19(NO2)3
_symmetry_space_group_name_H-M   'P 1'
_cell_length_a   21.62400000
_cell_length_b   21.62400000
_cell_length_c   24.53876004
_cell_angle_alpha   116.14274803
_cell_angle_beta   116.14274803
_cell_angle_gamma   90.00000000
_symmetry_Int_Tables_number   1
_chemical_formula_structural   ZnH28C19(NO2)3
_chemical_formula_sum   'Zn16 H448 C304 N48 O96'
_cell_volume   8974.36263888
_cell_formula_units_Z   16
loop_
 _symmetry_equiv_pos_site_id
 _symmetry_equiv_pos_as_xyz
  1  'x, y, z'
loop_
 _atom_site_type_symbol
 _atom_site_label
 _atom_site_symmetry_multiplicity
 _atom_site_fract_x
 _atom_site_fract_y
 _atom_site_fract_z
 _atom_site_occupancy
  C  C0  1  0.20563000  0.01242000  0.03074000  1.0
  C  C1  1  0.51832000  0.20563000  0.53074000  1.0
  C  C2  1  0.82511000  0.51832000  0.03074000  1.0
  C  C3  1  0.01242000  0.82511000  0.53074000  1.0
  C  C4  1  0.67489000  0.48758000  0.96926000  1.0
  C  C5  1  0.29437000  0.98168000  0.96926000  1.0
  C  C6  1  0.98168000  0.67489000  0.46926000  1.0
  C  C7  1  0.48758000  0.29437000  0.46926000  1.0
  C  C8  1  0.79437000  0.98758000  0.96926000  1.0
  C  C9  1  0.48168000  0.79437000  0.46926000  1.0
  C  C10  1  0.17489000  0.48168000  0.96926000  1.0
  C  C11  1  0.98758000  0.17489000  0.46926000  1.0
  C  C12  1  0.32511000  0.51242000  0.03074000  1.0
  C  C13  1  0.70563000  0.01832000  0.03074000  1.0
  C  C14  1  0.01832000  0.32511000  0.53074000  1.0
  C  C15  1  0.51242000  0.70563000  0.53074000  1.0
  C  C16  1  0.26341000  0.11450000  0.03924000  1.0
  C  C17  1  0.42474000  0.26341000  0.53924000  1.0
  C  C18  1  0.77583000  0.42474000  0.03924000  1.0
  C  C19  1  0.11450000  0.77583000  0.53924000  1.0
  C  C20  1  0.72417000  0.38550000  0.96076000  1.0
  C  C21  1  0.23659000  0.07526000  0.96076000  1.0
  C  C22  1  0.07526000  0.72417000  0.46076000  1.0
  C  C23  1  0.38550000  0.23659000  0.46076000  1.0
  C  C24  1  0.73659000  0.88550000  0.96076000  1.0
  C  C25  1  0.57526000  0.73659000  0.46076000  1.0
  C  C26  1  0.22417000  0.57526000  0.96076000  1.0
  C  C27  1  0.88550000  0.22417000  0.46076000  1.0
  C  C28  1  0.27583000  0.61450000  0.03924000  1.0
  C  C29  1  0.76341000  0.92474000  0.03924000  1.0
  C  C30  1  0.92474000  0.27583000  0.53924000  1.0
  C  C31  1  0.61450000  0.76341000  0.53924000  1.0
  C  C32  1  0.32554000  0.02357000  0.04838000  1.0
  C  C33  1  0.52481000  0.32554000  0.54838000  1.0
  C  C34  1  0.72284000  0.52481000  0.04838000  1.0
  C  C35  1  0.02357000  0.72284000  0.54838000  1.0
  C  C36  1  0.77716000  0.47643000  0.95162000  1.0
  C  C37  1  0.17446000  0.97519000  0.95162000  1.0
  C  C38  1  0.97519000  0.77716000  0.45162000  1.0
  C  C39  1  0.47643000  0.17446000  0.45162000  1.0
  C  C40  1  0.67446000  0.97643000  0.95162000  1.0
  C  C41  1  0.47519000  0.67446000  0.45162000  1.0
  C  C42  1  0.27716000  0.47519000  0.95162000  1.0
  C  C43  1  0.97643000  0.27716000  0.45162000  1.0
  C  C44  1  0.22284000  0.52357000  0.04838000  1.0
  C  C45  1  0.82554000  0.02481000  0.04838000  1.0
  C  C46  1  0.02481000  0.22284000  0.54838000  1.0
  C  C47  1  0.52357000  0.82554000  0.54838000  1.0
  C  C48  1  0.46254000  0.77684000  0.11768000  1.0
  C  C49  1  0.84084000  0.46254000  0.61768000  1.0
  C  C50  1  0.65514000  0.84084000  0.11768000  1.0
  C  C51  1  0.77684000  0.65514000  0.61768000  1.0
  C  C52  1  0.84486000  0.72316000  0.88232000  1.0
  C  C53  1  0.03746000  0.65916000  0.88232000  1.0
  C  C54  1  0.65916000  0.84486000  0.38232000  1.0
  C  C55  1  0.72316000  0.03746000  0.38232000  1.0
  C  C56  1  0.53746000  0.22316000  0.88232000  1.0
  C  C57  1  0.15916000  0.53746000  0.38232000  1.0
  C  C58  1  0.34486000  0.15916000  0.88232000  1.0
  C  C59  1  0.22316000  0.34486000  0.38232000  1.0
  C  C60  1  0.15514000  0.27684000  0.11768000  1.0
  C  C61  1  0.96254000  0.34084000  0.11768000  1.0
  C  C62  1  0.34084000  0.15514000  0.61768000  1.0
  C  C63  1  0.27684000  0.96254000  0.61768000  1.0
  C  C64  1  0.48210000  0.15430000  0.05560000  1.0
  C  C65  1  0.40130000  0.48210000  0.55560000  1.0
  C  C66  1  0.57350000  0.40130000  0.05560000  1.0
  C  C67  1  0.15430000  0.57350000  0.55560000  1.0
  C  C68  1  0.92650000  0.34570000  0.94440000  1.0
  C  C69  1  0.01790000  0.09870000  0.94440000  1.0
  C  C70  1  0.09870000  0.92650000  0.44440000  1.0
  C  C71  1  0.34570000  0.01790000  0.44440000  1.0
  C  C72  1  0.51790000  0.84570000  0.94440000  1.0
  C  C73  1  0.59870000  0.51790000  0.44440000  1.0
  C  C74  1  0.42650000  0.59870000  0.94440000  1.0
  C  C75  1  0.84570000  0.42650000  0.44440000  1.0
  C  C76  1  0.07350000  0.65430000  0.05560000  1.0
  C  C77  1  0.98210000  0.90130000  0.05560000  1.0
  C  C78  1  0.90130000  0.07350000  0.55560000  1.0
  C  C79  1  0.65430000  0.98210000  0.55560000  1.0
  C  C80  1  0.60771000  0.20781000  0.13802000  1.0
  C  C81  1  0.43021000  0.60771000  0.63802000  1.0
  C  C82  1  0.53031000  0.43021000  0.13802000  1.0
  C  C83  1  0.20781000  0.53031000  0.63802000  1.0
  C  C84  1  0.96969000  0.29219000  0.86198000  1.0
  C  C85  1  0.89229000  0.06979000  0.86198000  1.0
  C  C86  1  0.06979000  0.96969000  0.36198000  1.0
  C  C87  1  0.29219000  0.89229000  0.36198000  1.0
  C  C88  1  0.39229000  0.79219000  0.86198000  1.0
  C  C89  1  0.56979000  0.39229000  0.36198000  1.0
  C  C90  1  0.46969000  0.56979000  0.86198000  1.0
  C  C91  1  0.79219000  0.46969000  0.36198000  1.0
  C  C92  1  0.03031000  0.70781000  0.13802000  1.0
  C  C93  1  0.10771000  0.93021000  0.13802000  1.0
  C  C94  1  0.93021000  0.03031000  0.63802000  1.0
  C  C95  1  0.70781000  0.10771000  0.63802000  1.0
  C  C96  1  0.41298000  0.82728000  0.04076000  1.0
  C  C97  1  0.71348000  0.41298000  0.54076000  1.0
  C  C98  1  0.62778000  0.71348000  0.04076000  1.0
  C  C99  1  0.82728000  0.62778000  0.54076000  1.0
  C  C100  1  0.87222000  0.67272000  0.95924000  1.0
  C  C101  1  0.08702000  0.78652000  0.95924000  1.0
  C  C102  1  0.78652000  0.87222000  0.45924000  1.0
  C  C103  1  0.67272000  0.08702000  0.45924000  1.0
  C  C104  1  0.58702000  0.17272000  0.95924000  1.0
  C  C105  1  0.28652000  0.58702000  0.45924000  1.0
  C  C106  1  0.37222000  0.28652000  0.95924000  1.0
  C  C107  1  0.17272000  0.37222000  0.45924000  1.0
  C  C108  1  0.12778000  0.32728000  0.04076000  1.0
  C  C109  1  0.91298000  0.21348000  0.04076000  1.0
  C  C110  1  0.21348000  0.12778000  0.54076000  1.0
  C  C111  1  0.32728000  0.91298000  0.54076000  1.0
  C  C112  1  0.47787000  0.90587000  0.16374000  1.0
  C  C113  1  0.75787000  0.47787000  0.66374000  1.0
  C  C114  1  0.68587000  0.75787000  0.16374000  1.0
  C  C115  1  0.90587000  0.68587000  0.66374000  1.0
  C  C116  1  0.81413000  0.59413000  0.83626000  1.0
  C  C117  1  0.02213000  0.74213000  0.83626000  1.0
  C  C118  1  0.74213000  0.81413000  0.33626000  1.0
  C  C119  1  0.59413000  0.02213000  0.33626000  1.0
  C  C120  1  0.52213000  0.09413000  0.83626000  1.0
  C  C121  1  0.24213000  0.52213000  0.33626000  1.0
  C  C122  1  0.31413000  0.24213000  0.83626000  1.0
  C  C123  1  0.09413000  0.31413000  0.33626000  1.0
  C  C124  1  0.18587000  0.40587000  0.16374000  1.0
  C  C125  1  0.97787000  0.25787000  0.16374000  1.0
  C  C126  1  0.25787000  0.18587000  0.66374000  1.0
  C  C127  1  0.40587000  0.97787000  0.66374000  1.0
  C  C128  1  0.51470000  0.24610000  0.17080000  1.0
  C  C129  1  0.42470000  0.51470000  0.67080000  1.0
  C  C130  1  0.65610000  0.42470000  0.17080000  1.0
  C  C131  1  0.24610000  0.65610000  0.67080000  1.0
  C  C132  1  0.84390000  0.25390000  0.82920000  1.0
  C  C133  1  0.98530000  0.07530000  0.82920000  1.0
  C  C134  1  0.07530000  0.84390000  0.32920000  1.0
  C  C135  1  0.25390000  0.98530000  0.32920000  1.0
  C  C136  1  0.48530000  0.75390000  0.82920000  1.0
  C  C137  1  0.57530000  0.48530000  0.32920000  1.0
  C  C138  1  0.34390000  0.57530000  0.82920000  1.0
  C  C139  1  0.75390000  0.34390000  0.32920000  1.0
  C  C140  1  0.15610000  0.74610000  0.17080000  1.0
  C  C141  1  0.01470000  0.92470000  0.17080000  1.0
  C  C142  1  0.92470000  0.15610000  0.67080000  1.0
  C  C143  1  0.74610000  0.01470000  0.67080000  1.0
  C  C144  1  0.35066000  0.02649000  0.24034000  1.0
  C  C145  1  0.71385000  0.35066000  0.74034000  1.0
  C  C146  1  0.88968000  0.71385000  0.24034000  1.0
  C  C147  1  0.02649000  0.88968000  0.74034000  1.0
  C  C148  1  0.61032000  0.47351000  0.75966000  1.0
  C  C149  1  0.14934000  0.78615000  0.75966000  1.0
  C  C150  1  0.78615000  0.61032000  0.25966000  1.0
  C  C151  1  0.47351000  0.14934000  0.25966000  1.0
  C  C152  1  0.64934000  0.97351000  0.75966000  1.0
  C  C153  1  0.28615000  0.64934000  0.25966000  1.0
  C  C154  1  0.11032000  0.28615000  0.75966000  1.0
  C  C155  1  0.97351000  0.11032000  0.25966000  1.0
  C  C156  1  0.38968000  0.52649000  0.24034000  1.0
  C  C157  1  0.85066000  0.21385000  0.24034000  1.0
  C  C158  1  0.21385000  0.38968000  0.74034000  1.0
  C  C159  1  0.52649000  0.85066000  0.74034000  1.0
  C  C160  1  0.36091000  0.95837000  0.24226000  1.0
  C  C161  1  0.78389000  0.36091000  0.74226000  1.0
  C  C162  1  0.88135000  0.78389000  0.24226000  1.0
  C  C163  1  0.95837000  0.88135000  0.74226000  1.0
  C  C164  1  0.61865000  0.54163000  0.75774000  1.0
  C  C165  1  0.13909000  0.71611000  0.75774000  1.0
  C  C166  1  0.71611000  0.61865000  0.25774000  1.0
  C  C167  1  0.54163000  0.13909000  0.25774000  1.0
  C  C168  1  0.63909000  0.04163000  0.75774000  1.0
  C  C169  1  0.21611000  0.63909000  0.25774000  1.0
  C  C170  1  0.11865000  0.21611000  0.75774000  1.0
  C  C171  1  0.04163000  0.11865000  0.25774000  1.0
  C  C172  1  0.38135000  0.45837000  0.24226000  1.0
  C  C173  1  0.86091000  0.28389000  0.24226000  1.0
  C  C174  1  0.28389000  0.38135000  0.74226000  1.0
  C  C175  1  0.45837000  0.86091000  0.74226000  1.0
  C  C176  1  0.41061000  0.96442000  0.30564000  1.0
  C  C177  1  0.84122000  0.41061000  0.80564000  1.0
  C  C178  1  0.89503000  0.84122000  0.30564000  1.0
  C  C179  1  0.96442000  0.89503000  0.80564000  1.0
  C  C180  1  0.60497000  0.53558000  0.69436000  1.0
  C  C181  1  0.08939000  0.65878000  0.69436000  1.0
  C  C182  1  0.65878000  0.60497000  0.19436000  1.0
  C  C183  1  0.53558000  0.08939000  0.19436000  1.0
  C  C184  1  0.58939000  0.03558000  0.69436000  1.0
  C  C185  1  0.15878000  0.58939000  0.19436000  1.0
  C  C186  1  0.10497000  0.15878000  0.69436000  1.0
  C  C187  1  0.03558000  0.10497000  0.19436000  1.0
  C  C188  1  0.39503000  0.46442000  0.30564000  1.0
  C  C189  1  0.91061000  0.34122000  0.30564000  1.0
  C  C190  1  0.34122000  0.39503000  0.80564000  1.0
  C  C191  1  0.46442000  0.91061000  0.80564000  1.0
  C  C192  1  0.32422000  0.89041000  0.18274000  1.0
  C  C193  1  0.79233000  0.32422000  0.68274000  1.0
  C  C194  1  0.85852000  0.79233000  0.18274000  1.0
  C  C195  1  0.89041000  0.85852000  0.68274000  1.0
  C  C196  1  0.64148000  0.60959000  0.81726000  1.0
  C  C197  1  0.17578000  0.70767000  0.81726000  1.0
  C  C198  1  0.70767000  0.64148000  0.31726000  1.0
  C  C199  1  0.60959000  0.17578000  0.31726000  1.0
  C  C200  1  0.67578000  0.10959000  0.81726000  1.0
  C  C201  1  0.20767000  0.67578000  0.31726000  1.0
  C  C202  1  0.14148000  0.20767000  0.81726000  1.0
  C  C203  1  0.10959000  0.14148000  0.31726000  1.0
  C  C204  1  0.35852000  0.39041000  0.18274000  1.0
  C  C205  1  0.82422000  0.29233000  0.18274000  1.0
  C  C206  1  0.29233000  0.35852000  0.68274000  1.0
  C  C207  1  0.39041000  0.82422000  0.68274000  1.0
  C  C208  1  0.27041000  0.87860000  0.11156000  1.0
  C  C209  1  0.73296000  0.27041000  0.61156000  1.0
  C  C210  1  0.84115000  0.73296000  0.11156000  1.0
  C  C211  1  0.87860000  0.84115000  0.61156000  1.0
  C  C212  1  0.65885000  0.62140000  0.88844000  1.0
  C  C213  1  0.22959000  0.76704000  0.88844000  1.0
  C  C214  1  0.76704000  0.65885000  0.38844000  1.0
  C  C215  1  0.62140000  0.22959000  0.38844000  1.0
  C  C216  1  0.72959000  0.12140000  0.88844000  1.0
  C  C217  1  0.26704000  0.72959000  0.38844000  1.0
  C  C218  1  0.15885000  0.26704000  0.88844000  1.0
  C  C219  1  0.12140000  0.15885000  0.38844000  1.0
  C  C220  1  0.34115000  0.37860000  0.11156000  1.0
  C  C221  1  0.77041000  0.23296000  0.11156000  1.0
  C  C222  1  0.23296000  0.34115000  0.61156000  1.0
  C  C223  1  0.37860000  0.77041000  0.61156000  1.0
  C  C224  1  0.22999000  0.14182000  0.24256000  1.0
  C  C225  1  0.60074000  0.22999000  0.74256000  1.0
  C  C226  1  0.01257000  0.60074000  0.24256000  1.0
  C  C227  1  0.14182000  0.01257000  0.74256000  1.0
  C  C228  1  0.48743000  0.35818000  0.75744000  1.0
  C  C229  1  0.27001000  0.89926000  0.75744000  1.0
  C  C230  1  0.89926000  0.48743000  0.25744000  1.0
  C  C231  1  0.35818000  0.27001000  0.25744000  1.0
  C  C232  1  0.77001000  0.85818000  0.75744000  1.0
  C  C233  1  0.39926000  0.77001000  0.25744000  1.0
  C  C234  1  0.98743000  0.39926000  0.75744000  1.0
  C  C235  1  0.85818000  0.98743000  0.25744000  1.0
  C  C236  1  0.51257000  0.64182000  0.24256000  1.0
  C  C237  1  0.72999000  0.10074000  0.24256000  1.0
  C  C238  1  0.10074000  0.51257000  0.74256000  1.0
  C  C239  1  0.64182000  0.72999000  0.74256000  1.0
  C  C240  1  0.16161000  0.13371000  0.24418000  1.0
  C  C241  1  0.61047000  0.16161000  0.74418000  1.0
  C  C242  1  0.08257000  0.61047000  0.24418000  1.0
  C  C243  1  0.13371000  0.08257000  0.74418000  1.0
  C  C244  1  0.41743000  0.36629000  0.75582000  1.0
  C  C245  1  0.33839000  0.88953000  0.75582000  1.0
  C  C246  1  0.88953000  0.41743000  0.25582000  1.0
  C  C247  1  0.36629000  0.33839000  0.25582000  1.0
  C  C248  1  0.83839000  0.86629000  0.75582000  1.0
  C  C249  1  0.38953000  0.83839000  0.25582000  1.0
  C  C250  1  0.91743000  0.38953000  0.75582000  1.0
  C  C251  1  0.86629000  0.91743000  0.25582000  1.0
  C  C252  1  0.58257000  0.63371000  0.24418000  1.0
  C  C253  1  0.66161000  0.11047000  0.24418000  1.0
  C  C254  1  0.11047000  0.58257000  0.74418000  1.0
  C  C255  1  0.63371000  0.66161000  0.74418000  1.0
  C  C256  1  0.16754000  0.14769000  0.30790000  1.0
  C  C257  1  0.66021000  0.16754000  0.80790000  1.0
  C  C258  1  0.14036000  0.66021000  0.30790000  1.0
  C  C259  1  0.14769000  0.14036000  0.80790000  1.0
  C  C260  1  0.35964000  0.35231000  0.69210000  1.0
  C  C261  1  0.33246000  0.83979000  0.69210000  1.0
  C  C262  1  0.83979000  0.35964000  0.19210000  1.0
  C  C263  1  0.35231000  0.33246000  0.19210000  1.0
  C  C264  1  0.83246000  0.85231000  0.69210000  1.0
  C  C265  1  0.33979000  0.83246000  0.19210000  1.0
  C  C266  1  0.85964000  0.33979000  0.69210000  1.0
  C  C267  1  0.85231000  0.85964000  0.19210000  1.0
  C  C268  1  0.64036000  0.64769000  0.30790000  1.0
  C  C269  1  0.66754000  0.16021000  0.30790000  1.0
  C  C270  1  0.16021000  0.64036000  0.80790000  1.0
  C  C271  1  0.64769000  0.66754000  0.80790000  1.0
  C  C272  1  0.09401000  0.11195000  0.18530000  1.0
  C  C273  1  0.57335000  0.09401000  0.68530000  1.0
  C  C274  1  0.09129000  0.57335000  0.18530000  1.0
  C  C275  1  0.11195000  0.09129000  0.68530000  1.0
  C  C276  1  0.40871000  0.38805000  0.81470000  1.0
  C  C277  1  0.40599000  0.92665000  0.81470000  1.0
  C  C278  1  0.92665000  0.40871000  0.31470000  1.0
  C  C279  1  0.38805000  0.40599000  0.31470000  1.0
  C  C280  1  0.90599000  0.88805000  0.81470000  1.0
  C  C281  1  0.42665000  0.90599000  0.31470000  1.0
  C  C282  1  0.90871000  0.42665000  0.81470000  1.0
  C  C283  1  0.88805000  0.90871000  0.31470000  1.0
  C  C284  1  0.59129000  0.61195000  0.18530000  1.0
  C  C285  1  0.59401000  0.07335000  0.18530000  1.0
  C  C286  1  0.07335000  0.59129000  0.68530000  1.0
  C  C287  1  0.61195000  0.59401000  0.68530000  1.0
  C  C288  1  0.08131000  0.09661000  0.11418000  1.0
  C  C289  1  0.51757000  0.08131000  0.61418000  1.0
  C  C290  1  0.03287000  0.51757000  0.11418000  1.0
  C  C291  1  0.09661000  0.03287000  0.61418000  1.0
  C  C292  1  0.46713000  0.40339000  0.88582000  1.0
  C  C293  1  0.41869000  0.98243000  0.88582000  1.0
  C  C294  1  0.98243000  0.46713000  0.38582000  1.0
  C  C295  1  0.40339000  0.41869000  0.38582000  1.0
  C  C296  1  0.91869000  0.90339000  0.88582000  1.0
  C  C297  1  0.48243000  0.91869000  0.38582000  1.0
  C  C298  1  0.96713000  0.48243000  0.88582000  1.0
  C  C299  1  0.90339000  0.96713000  0.38582000  1.0
  C  C300  1  0.53287000  0.59661000  0.11418000  1.0
  C  C301  1  0.58131000  0.01757000  0.11418000  1.0
  C  C302  1  0.01757000  0.53287000  0.61418000  1.0
  C  C303  1  0.59661000  0.58131000  0.61418000  1.0
  H  H304  1  0.17190000  0.03780000  0.04340000  1.0
  H  H305  1  0.50560000  0.17190000  0.54340000  1.0
  H  H306  1  0.87150000  0.50560000  0.04340000  1.0
  H  H307  1  0.03780000  0.87150000  0.54340000  1.0
  H  H308  1  0.62850000  0.46220000  0.95660000  1.0
  H  H309  1  0.32810000  0.99440000  0.95660000  1.0
  H  H310  1  0.99440000  0.62850000  0.45660000  1.0
  H  H311  1  0.46220000  0.32810000  0.45660000  1.0
  H  H312  1  0.82810000  0.96220000  0.95660000  1.0
  H  H313  1  0.49440000  0.82810000  0.45660000  1.0
  H  H314  1  0.12850000  0.49440000  0.95660000  1.0
  H  H315  1  0.96220000  0.12850000  0.45660000  1.0
  H  H316  1  0.37150000  0.53780000  0.04340000  1.0
  H  H317  1  0.67190000  0.00560000  0.04340000  1.0
  H  H318  1  0.00560000  0.37150000  0.54340000  1.0
  H  H319  1  0.53780000  0.67190000  0.54340000  1.0
  H  H320  1  0.21280000  0.97660000  0.04640000  1.0
  H  H321  1  0.56980000  0.21280000  0.54640000  1.0
  H  H322  1  0.83360000  0.56980000  0.04640000  1.0
  H  H323  1  0.97660000  0.83360000  0.54640000  1.0
  H  H324  1  0.66640000  0.52340000  0.95360000  1.0
  H  H325  1  0.28720000  0.93020000  0.95360000  1.0
  H  H326  1  0.93020000  0.66640000  0.45360000  1.0
  H  H327  1  0.52340000  0.28720000  0.45360000  1.0
  H  H328  1  0.78720000  0.02340000  0.95360000  1.0
  H  H329  1  0.43020000  0.78720000  0.45360000  1.0
  H  H330  1  0.16640000  0.43020000  0.95360000  1.0
  H  H331  1  0.02340000  0.16640000  0.45360000  1.0
  H  H332  1  0.33360000  0.47660000  0.04640000  1.0
  H  H333  1  0.71280000  0.06980000  0.04640000  1.0
  H  H334  1  0.06980000  0.33360000  0.54640000  1.0
  H  H335  1  0.47660000  0.71280000  0.54640000  1.0
  H  H336  1  0.30850000  0.15000000  0.06340000  1.0
  H  H337  1  0.41340000  0.30850000  0.56340000  1.0
  H  H338  1  0.75490000  0.41340000  0.06340000  1.0
  H  H339  1  0.15000000  0.75490000  0.56340000  1.0
  H  H340  1  0.74510000  0.35000000  0.93660000  1.0
  H  H341  1  0.19150000  0.08660000  0.93660000  1.0
  H  H342  1  0.08660000  0.74510000  0.43660000  1.0
  H  H343  1  0.35000000  0.19150000  0.43660000  1.0
  H  H344  1  0.69150000  0.85000000  0.93660000  1.0
  H  H345  1  0.58660000  0.69150000  0.43660000  1.0
  H  H346  1  0.24510000  0.58660000  0.93660000  1.0
  H  H347  1  0.85000000  0.24510000  0.43660000  1.0
  H  H348  1  0.25490000  0.65000000  0.06340000  1.0
  H  H349  1  0.80850000  0.91340000  0.06340000  1.0
  H  H350  1  0.91340000  0.25490000  0.56340000  1.0
  H  H351  1  0.65000000  0.80850000  0.56340000  1.0
  H  H352  1  0.22820000  0.14000000  0.04860000  1.0
  H  H353  1  0.40860000  0.22820000  0.54860000  1.0
  H  H354  1  0.82040000  0.40860000  0.04860000  1.0
  H  H355  1  0.14000000  0.82040000  0.54860000  1.0
  H  H356  1  0.67960000  0.36000000  0.95140000  1.0
  H  H357  1  0.27180000  0.09140000  0.95140000  1.0
  H  H358  1  0.09140000  0.67960000  0.45140000  1.0
  H  H359  1  0.36000000  0.27180000  0.45140000  1.0
  H  H360  1  0.77180000  0.86000000  0.95140000  1.0
  H  H361  1  0.59140000  0.77180000  0.45140000  1.0
  H  H362  1  0.17960000  0.59140000  0.95140000  1.0
  H  H363  1  0.86000000  0.17960000  0.45140000  1.0
  H  H364  1  0.32040000  0.64000000  0.04860000  1.0
  H  H365  1  0.72820000  0.90860000  0.04860000  1.0
  H  H366  1  0.90860000  0.32040000  0.54860000  1.0
  H  H367  1  0.64000000  0.72820000  0.54860000  1.0
  H  H368  1  0.33510000  0.99050000  0.06740000  1.0
  H  H369  1  0.57690000  0.33510000  0.56740000  1.0
  H  H370  1  0.73230000  0.57690000  0.06740000  1.0
  H  H371  1  0.99050000  0.73230000  0.56740000  1.0
  H  H372  1  0.76770000  0.50950000  0.93260000  1.0
  H  H373  1  0.16490000  0.92310000  0.93260000  1.0
  H  H374  1  0.92310000  0.76770000  0.43260000  1.0
  H  H375  1  0.50950000  0.16490000  0.43260000  1.0
  H  H376  1  0.66490000  0.00950000  0.93260000  1.0
  H  H377  1  0.42310000  0.66490000  0.43260000  1.0
  H  H378  1  0.26770000  0.42310000  0.93260000  1.0
  H  H379  1  0.00950000  0.26770000  0.43260000  1.0
  H  H380  1  0.23230000  0.49050000  0.06740000  1.0
  H  H381  1  0.83510000  0.07690000  0.06740000  1.0
  H  H382  1  0.07690000  0.23230000  0.56740000  1.0
  H  H383  1  0.49050000  0.83510000  0.56740000  1.0
  H  H384  1  0.37110000  0.05700000  0.06960000  1.0
  H  H385  1  0.51260000  0.37110000  0.56960000  1.0
  H  H386  1  0.69850000  0.51260000  0.06960000  1.0
  H  H387  1  0.05700000  0.69850000  0.56960000  1.0
  H  H388  1  0.80150000  0.44300000  0.93040000  1.0
  H  H389  1  0.12890000  0.98740000  0.93040000  1.0
  H  H390  1  0.98740000  0.80150000  0.43040000  1.0
  H  H391  1  0.44300000  0.12890000  0.43040000  1.0
  H  H392  1  0.62890000  0.94300000  0.93040000  1.0
  H  H393  1  0.48740000  0.62890000  0.43040000  1.0
  H  H394  1  0.30150000  0.48740000  0.93040000  1.0
  H  H395  1  0.94300000  0.30150000  0.43040000  1.0
  H  H396  1  0.19850000  0.55700000  0.06960000  1.0
  H  H397  1  0.87110000  0.01260000  0.06960000  1.0
  H  H398  1  0.01260000  0.19850000  0.56960000  1.0
  H  H399  1  0.55700000  0.87110000  0.56960000  1.0
  H  H400  1  0.43500000  0.73170000  0.07460000  1.0
  H  H401  1  0.84290000  0.43500000  0.57460000  1.0
  H  H402  1  0.63960000  0.84290000  0.07460000  1.0
  H  H403  1  0.73170000  0.63960000  0.57460000  1.0
  H  H404  1  0.86040000  0.76830000  0.92540000  1.0
  H  H405  1  0.06500000  0.65710000  0.92540000  1.0
  H  H406  1  0.65710000  0.86040000  0.42540000  1.0
  H  H407  1  0.76830000  0.06500000  0.42540000  1.0
  H  H408  1  0.56500000  0.26830000  0.92540000  1.0
  H  H409  1  0.15710000  0.56500000  0.42540000  1.0
  H  H410  1  0.36040000  0.15710000  0.92540000  1.0
  H  H411  1  0.26830000  0.36040000  0.42540000  1.0
  H  H412  1  0.13960000  0.23170000  0.07460000  1.0
  H  H413  1  0.93500000  0.34290000  0.07460000  1.0
  H  H414  1  0.34290000  0.13960000  0.57460000  1.0
  H  H415  1  0.23170000  0.93500000  0.57460000  1.0
  H  H416  1  0.44890000  0.78130000  0.15220000  1.0
  H  H417  1  0.87090000  0.44890000  0.65220000  1.0
  H  H418  1  0.70330000  0.87090000  0.15220000  1.0
  H  H419  1  0.78130000  0.70330000  0.65220000  1.0
  H  H420  1  0.79670000  0.71870000  0.84780000  1.0
  H  H421  1  0.05110000  0.62910000  0.84780000  1.0
  H  H422  1  0.62910000  0.79670000  0.34780000  1.0
  H  H423  1  0.71870000  0.05110000  0.34780000  1.0
  H  H424  1  0.55110000  0.21870000  0.84780000  1.0
  H  H425  1  0.12910000  0.55110000  0.34780000  1.0
  H  H426  1  0.29670000  0.12910000  0.84780000  1.0
  H  H427  1  0.21870000  0.29670000  0.34780000  1.0
  H  H428  1  0.20330000  0.28130000  0.15220000  1.0
  H  H429  1  0.94890000  0.37090000  0.15220000  1.0
  H  H430  1  0.37090000  0.20330000  0.65220000  1.0
  H  H431  1  0.28130000  0.94890000  0.65220000  1.0
  H  H432  1  0.51320000  0.77810000  0.13600000  1.0
  H  H433  1  0.85790000  0.51320000  0.63600000  1.0
  H  H434  1  0.62280000  0.85790000  0.13600000  1.0
  H  H435  1  0.77810000  0.62280000  0.63600000  1.0
  H  H436  1  0.87720000  0.72190000  0.86400000  1.0
  H  H437  1  0.98680000  0.64210000  0.86400000  1.0
  H  H438  1  0.64210000  0.87720000  0.36400000  1.0
  H  H439  1  0.72190000  0.98680000  0.36400000  1.0
  H  H440  1  0.48680000  0.22190000  0.86400000  1.0
  H  H441  1  0.14210000  0.48680000  0.36400000  1.0
  H  H442  1  0.37720000  0.14210000  0.86400000  1.0
  H  H443  1  0.22190000  0.37720000  0.36400000  1.0
  H  H444  1  0.12280000  0.27810000  0.13600000  1.0
  H  H445  1  0.01320000  0.35790000  0.13600000  1.0
  H  H446  1  0.35790000  0.12280000  0.63600000  1.0
  H  H447  1  0.27810000  0.01320000  0.63600000  1.0
  H  H448  1  0.49620000  0.12420000  0.02340000  1.0
  H  H449  1  0.39920000  0.49620000  0.52340000  1.0
  H  H450  1  0.52720000  0.39920000  0.02340000  1.0
  H  H451  1  0.12420000  0.52720000  0.52340000  1.0
  H  H452  1  0.97280000  0.37580000  0.97660000  1.0
  H  H453  1  0.00380000  0.10080000  0.97660000  1.0
  H  H454  1  0.10080000  0.97280000  0.47660000  1.0
  H  H455  1  0.37580000  0.00380000  0.47660000  1.0
  H  H456  1  0.50380000  0.87580000  0.97660000  1.0
  H  H457  1  0.60080000  0.50380000  0.47660000  1.0
  H  H458  1  0.47280000  0.60080000  0.97660000  1.0
  H  H459  1  0.87580000  0.47280000  0.47660000  1.0
  H  H460  1  0.02720000  0.62420000  0.02340000  1.0
  H  H461  1  0.99620000  0.89920000  0.02340000  1.0
  H  H462  1  0.89920000  0.02720000  0.52340000  1.0
  H  H463  1  0.62420000  0.99620000  0.52340000  1.0
  H  H464  1  0.61170000  0.17250000  0.09820000  1.0
  H  H465  1  0.42570000  0.61170000  0.59820000  1.0
  H  H466  1  0.48650000  0.42570000  0.09820000  1.0
  H  H467  1  0.17250000  0.48650000  0.59820000  1.0
  H  H468  1  0.01350000  0.32750000  0.90180000  1.0
  H  H469  1  0.88830000  0.07430000  0.90180000  1.0
  H  H470  1  0.07430000  0.01350000  0.40180000  1.0
  H  H471  1  0.32750000  0.88830000  0.40180000  1.0
  H  H472  1  0.38830000  0.82750000  0.90180000  1.0
  H  H473  1  0.57430000  0.38830000  0.40180000  1.0
  H  H474  1  0.51350000  0.57430000  0.90180000  1.0
  H  H475  1  0.82750000  0.51350000  0.40180000  1.0
  H  H476  1  0.98650000  0.67250000  0.09820000  1.0
  H  H477  1  0.11170000  0.92570000  0.09820000  1.0
  H  H478  1  0.92570000  0.98650000  0.59820000  1.0
  H  H479  1  0.67250000  0.11170000  0.59820000  1.0
  H  H480  1  0.63250000  0.19930000  0.17760000  1.0
  H  H481  1  0.47830000  0.63250000  0.67760000  1.0
  H  H482  1  0.54510000  0.47830000  0.17760000  1.0
  H  H483  1  0.19930000  0.54510000  0.67760000  1.0
  H  H484  1  0.95490000  0.30070000  0.82240000  1.0
  H  H485  1  0.86750000  0.02170000  0.82240000  1.0
  H  H486  1  0.02170000  0.95490000  0.32240000  1.0
  H  H487  1  0.30070000  0.86750000  0.32240000  1.0
  H  H488  1  0.36750000  0.80070000  0.82240000  1.0
  H  H489  1  0.52170000  0.36750000  0.32240000  1.0
  H  H490  1  0.45490000  0.52170000  0.82240000  1.0
  H  H491  1  0.80070000  0.45490000  0.32240000  1.0
  H  H492  1  0.04510000  0.69930000  0.17760000  1.0
  H  H493  1  0.13250000  0.97830000  0.17760000  1.0
  H  H494  1  0.97830000  0.04510000  0.67760000  1.0
  H  H495  1  0.69930000  0.13250000  0.67760000  1.0
  H  H496  1  0.62920000  0.25550000  0.15100000  1.0
  H  H497  1  0.39550000  0.62920000  0.65100000  1.0
  H  H498  1  0.52180000  0.39550000  0.15100000  1.0
  H  H499  1  0.25550000  0.52180000  0.65100000  1.0
  H  H500  1  0.97820000  0.24450000  0.84900000  1.0
  H  H501  1  0.87080000  0.10450000  0.84900000  1.0
  H  H502  1  0.10450000  0.97820000  0.34900000  1.0
  H  H503  1  0.24450000  0.87080000  0.34900000  1.0
  H  H504  1  0.37080000  0.74450000  0.84900000  1.0
  H  H505  1  0.60450000  0.37080000  0.34900000  1.0
  H  H506  1  0.47820000  0.60450000  0.84900000  1.0
  H  H507  1  0.74450000  0.47820000  0.34900000  1.0
  H  H508  1  0.02180000  0.75550000  0.15100000  1.0
  H  H509  1  0.12920000  0.89550000  0.15100000  1.0
  H  H510  1  0.89550000  0.02180000  0.65100000  1.0
  H  H511  1  0.75550000  0.12920000  0.65100000  1.0
  H  H512  1  0.39270000  0.78040000  0.00220000  1.0
  H  H513  1  0.72180000  0.39270000  0.50220000  1.0
  H  H514  1  0.60950000  0.72180000  0.00220000  1.0
  H  H515  1  0.78040000  0.60950000  0.50220000  1.0
  H  H516  1  0.89050000  0.71960000  0.99780000  1.0
  H  H517  1  0.10730000  0.77820000  0.99780000  1.0
  H  H518  1  0.77820000  0.89050000  0.49780000  1.0
  H  H519  1  0.71960000  0.10730000  0.49780000  1.0
  H  H520  1  0.60730000  0.21960000  0.99780000  1.0
  H  H521  1  0.27820000  0.60730000  0.49780000  1.0
  H  H522  1  0.39050000  0.27820000  0.99780000  1.0
  H  H523  1  0.21960000  0.39050000  0.49780000  1.0
  H  H524  1  0.10950000  0.28040000  0.00220000  1.0
  H  H525  1  0.89270000  0.22180000  0.00220000  1.0
  H  H526  1  0.22180000  0.10950000  0.50220000  1.0
  H  H527  1  0.28040000  0.89270000  0.50220000  1.0
  H  H528  1  0.52830000  0.92080000  0.17980000  1.0
  H  H529  1  0.75900000  0.52830000  0.67980000  1.0
  H  H530  1  0.65150000  0.75900000  0.17980000  1.0
  H  H531  1  0.92080000  0.65150000  0.67980000  1.0
  H  H532  1  0.84850000  0.57920000  0.82020000  1.0
  H  H533  1  0.97170000  0.74100000  0.82020000  1.0
  H  H534  1  0.74100000  0.84850000  0.32020000  1.0
  H  H535  1  0.57920000  0.97170000  0.32020000  1.0
  H  H536  1  0.47170000  0.07920000  0.82020000  1.0
  H  H537  1  0.24100000  0.47170000  0.32020000  1.0
  H  H538  1  0.34850000  0.24100000  0.82020000  1.0
  H  H539  1  0.07920000  0.34850000  0.32020000  1.0
  H  H540  1  0.15150000  0.42080000  0.17980000  1.0
  H  H541  1  0.02830000  0.25900000  0.17980000  1.0
  H  H542  1  0.25900000  0.15150000  0.67980000  1.0
  H  H543  1  0.42080000  0.02830000  0.67980000  1.0
  H  H544  1  0.47230000  0.90560000  0.20120000  1.0
  H  H545  1  0.79560000  0.47230000  0.70120000  1.0
  H  H546  1  0.72890000  0.79560000  0.20120000  1.0
  H  H547  1  0.90560000  0.72890000  0.70120000  1.0
  H  H548  1  0.77110000  0.59440000  0.79880000  1.0
  H  H549  1  0.02770000  0.70440000  0.79880000  1.0
  H  H550  1  0.70440000  0.77110000  0.29880000  1.0
  H  H551  1  0.59440000  0.02770000  0.29880000  1.0
  H  H552  1  0.52770000  0.09440000  0.79880000  1.0
  H  H553  1  0.20440000  0.52770000  0.29880000  1.0
  H  H554  1  0.27110000  0.20440000  0.79880000  1.0
  H  H555  1  0.09440000  0.27110000  0.29880000  1.0
  H  H556  1  0.22890000  0.40560000  0.20120000  1.0
  H  H557  1  0.97230000  0.29560000  0.20120000  1.0
  H  H558  1  0.29560000  0.22890000  0.70120000  1.0
  H  H559  1  0.40560000  0.97230000  0.70120000  1.0
  H  H560  1  0.45260000  0.93890000  0.15060000  1.0
  H  H561  1  0.71170000  0.45260000  0.65060000  1.0
  H  H562  1  0.69800000  0.71170000  0.15060000  1.0
  H  H563  1  0.93890000  0.69800000  0.65060000  1.0
  H  H564  1  0.80200000  0.56110000  0.84940000  1.0
  H  H565  1  0.04740000  0.78830000  0.84940000  1.0
  H  H566  1  0.78830000  0.80200000  0.34940000  1.0
  H  H567  1  0.56110000  0.04740000  0.34940000  1.0
  H  H568  1  0.54740000  0.06110000  0.84940000  1.0
  H  H569  1  0.28830000  0.54740000  0.34940000  1.0
  H  H570  1  0.30200000  0.28830000  0.84940000  1.0
  H  H571  1  0.06110000  0.30200000  0.34940000  1.0
  H  H572  1  0.19800000  0.43890000  0.15060000  1.0
  H  H573  1  0.95260000  0.21170000  0.15060000  1.0
  H  H574  1  0.21170000  0.19800000  0.65060000  1.0
  H  H575  1  0.43890000  0.95260000  0.65060000  1.0
  H  H576  1  0.46480000  0.22800000  0.15440000  1.0
  H  H577  1  0.42640000  0.46480000  0.65440000  1.0
  H  H578  1  0.68960000  0.42640000  0.15440000  1.0
  H  H579  1  0.22800000  0.68960000  0.65440000  1.0
  H  H580  1  0.81040000  0.27200000  0.84560000  1.0
  H  H581  1  0.03520000  0.07360000  0.84560000  1.0
  H  H582  1  0.07360000  0.81040000  0.34560000  1.0
  H  H583  1  0.27200000  0.03520000  0.34560000  1.0
  H  H584  1  0.53520000  0.77200000  0.84560000  1.0
  H  H585  1  0.57360000  0.53520000  0.34560000  1.0
  H  H586  1  0.31040000  0.57360000  0.84560000  1.0
  H  H587  1  0.77200000  0.31040000  0.34560000  1.0
  H  H588  1  0.18960000  0.72800000  0.15440000  1.0
  H  H589  1  0.96480000  0.92640000  0.15440000  1.0
  H  H590  1  0.92640000  0.18960000  0.65440000  1.0
  H  H591  1  0.72800000  0.96480000  0.65440000  1.0
  H  H592  1  0.52210000  0.29480000  0.17900000  1.0
  H  H593  1  0.38420000  0.52210000  0.67900000  1.0
  H  H594  1  0.65690000  0.38420000  0.17900000  1.0
  H  H595  1  0.29480000  0.65690000  0.67900000  1.0
  H  H596  1  0.84310000  0.20520000  0.82100000  1.0
  H  H597  1  0.97790000  0.11580000  0.82100000  1.0
  H  H598  1  0.11580000  0.84310000  0.32100000  1.0
  H  H599  1  0.20520000  0.97790000  0.32100000  1.0
  H  H600  1  0.47790000  0.70520000  0.82100000  1.0
  H  H601  1  0.61580000  0.47790000  0.32100000  1.0
  H  H602  1  0.34310000  0.61580000  0.82100000  1.0
  H  H603  1  0.70520000  0.34310000  0.32100000  1.0
  H  H604  1  0.15690000  0.79480000  0.17900000  1.0
  H  H605  1  0.02210000  0.88420000  0.17900000  1.0
  H  H606  1  0.88420000  0.15690000  0.67900000  1.0
  H  H607  1  0.79480000  0.02210000  0.67900000  1.0
  H  H608  1  0.54470000  0.24570000  0.21440000  1.0
  H  H609  1  0.46870000  0.54470000  0.71440000  1.0
  H  H610  1  0.66970000  0.46870000  0.21440000  1.0
  H  H611  1  0.24570000  0.66970000  0.71440000  1.0
  H  H612  1  0.83030000  0.25430000  0.78560000  1.0
  H  H613  1  0.95530000  0.03130000  0.78560000  1.0
  H  H614  1  0.03130000  0.83030000  0.28560000  1.0
  H  H615  1  0.25430000  0.95530000  0.28560000  1.0
  H  H616  1  0.45530000  0.75430000  0.78560000  1.0
  H  H617  1  0.53130000  0.45530000  0.28560000  1.0
  H  H618  1  0.33030000  0.53130000  0.78560000  1.0
  H  H619  1  0.75430000  0.33030000  0.28560000  1.0
  H  H620  1  0.16970000  0.74570000  0.21440000  1.0
  H  H621  1  0.04470000  0.96870000  0.21440000  1.0
  H  H622  1  0.96870000  0.16970000  0.71440000  1.0
  H  H623  1  0.74570000  0.04470000  0.71440000  1.0
  H  H624  1  0.43480000  0.01060000  0.34460000  1.0
  H  H625  1  0.83400000  0.43480000  0.84460000  1.0
  H  H626  1  0.90980000  0.83400000  0.34460000  1.0
  H  H627  1  0.01060000  0.90980000  0.84460000  1.0
  H  H628  1  0.59020000  0.48940000  0.65540000  1.0
  H  H629  1  0.06520000  0.66600000  0.65540000  1.0
  H  H630  1  0.66600000  0.59020000  0.15540000  1.0
  H  H631  1  0.48940000  0.06520000  0.15540000  1.0
  H  H632  1  0.56520000  0.98940000  0.65540000  1.0
  H  H633  1  0.16600000  0.56520000  0.15540000  1.0
  H  H634  1  0.09020000  0.16600000  0.65540000  1.0
  H  H635  1  0.98940000  0.09020000  0.15540000  1.0
  H  H636  1  0.40980000  0.51060000  0.34460000  1.0
  H  H637  1  0.93480000  0.33400000  0.34460000  1.0
  H  H638  1  0.33400000  0.40980000  0.84460000  1.0
  H  H639  1  0.51060000  0.93480000  0.84460000  1.0
  H  H640  1  0.29510000  0.88800000  0.08980000  1.0
  H  H641  1  0.70180000  0.29510000  0.58980000  1.0
  H  H642  1  0.79470000  0.70180000  0.08980000  1.0
  H  H643  1  0.88800000  0.79470000  0.58980000  1.0
  H  H644  1  0.70530000  0.61200000  0.91020000  1.0
  H  H645  1  0.20490000  0.79820000  0.91020000  1.0
  H  H646  1  0.79820000  0.70530000  0.41020000  1.0
  H  H647  1  0.61200000  0.20490000  0.41020000  1.0
  H  H648  1  0.70490000  0.11200000  0.91020000  1.0
  H  H649  1  0.29820000  0.70490000  0.41020000  1.0
  H  H650  1  0.20530000  0.29820000  0.91020000  1.0
  H  H651  1  0.11200000  0.20530000  0.41020000  1.0
  H  H652  1  0.29470000  0.38800000  0.08980000  1.0
  H  H653  1  0.79510000  0.20180000  0.08980000  1.0
  H  H654  1  0.20180000  0.29470000  0.58980000  1.0
  H  H655  1  0.38800000  0.79510000  0.58980000  1.0
  H  H656  1  0.23890000  0.91080000  0.11640000  1.0
  H  H657  1  0.70560000  0.23890000  0.61640000  1.0
  H  H658  1  0.87750000  0.70560000  0.11640000  1.0
  H  H659  1  0.91080000  0.87750000  0.61640000  1.0
  H  H660  1  0.62250000  0.58920000  0.88360000  1.0
  H  H661  1  0.26110000  0.79440000  0.88360000  1.0
  H  H662  1  0.79440000  0.62250000  0.38360000  1.0
  H  H663  1  0.58920000  0.26110000  0.38360000  1.0
  H  H664  1  0.76110000  0.08920000  0.88360000  1.0
  H  H665  1  0.29440000  0.76110000  0.38360000  1.0
  H  H666  1  0.12250000  0.29440000  0.88360000  1.0
  H  H667  1  0.08920000  0.12250000  0.38360000  1.0
  H  H668  1  0.37750000  0.41080000  0.11640000  1.0
  H  H669  1  0.73890000  0.20560000  0.11640000  1.0
  H  H670  1  0.20560000  0.37750000  0.61640000  1.0
  H  H671  1  0.41080000  0.73890000  0.61640000  1.0
  H  H672  1  0.24230000  0.82930000  0.08240000  1.0
  H  H673  1  0.75310000  0.24230000  0.58240000  1.0
  H  H674  1  0.84010000  0.75310000  0.08240000  1.0
  H  H675  1  0.82930000  0.84010000  0.58240000  1.0
  H  H676  1  0.65990000  0.67070000  0.91760000  1.0
  H  H677  1  0.25770000  0.74690000  0.91760000  1.0
  H  H678  1  0.74690000  0.65990000  0.41760000  1.0
  H  H679  1  0.67070000  0.25770000  0.41760000  1.0
  H  H680  1  0.75770000  0.17070000  0.91760000  1.0
  H  H681  1  0.24690000  0.75770000  0.41760000  1.0
  H  H682  1  0.15990000  0.24690000  0.91760000  1.0
  H  H683  1  0.17070000  0.15990000  0.41760000  1.0
  H  H684  1  0.34010000  0.32930000  0.08240000  1.0
  H  H685  1  0.74230000  0.25310000  0.08240000  1.0
  H  H686  1  0.25310000  0.34010000  0.58240000  1.0
  H  H687  1  0.32930000  0.74230000  0.58240000  1.0
  H  H688  1  0.21370000  0.16220000  0.34680000  1.0
  H  H689  1  0.68460000  0.21370000  0.84680000  1.0
  H  H690  1  0.13310000  0.68460000  0.34680000  1.0
  H  H691  1  0.16220000  0.13310000  0.84680000  1.0
  H  H692  1  0.36690000  0.33780000  0.65320000  1.0
  H  H693  1  0.28630000  0.81540000  0.65320000  1.0
  H  H694  1  0.81540000  0.36690000  0.15320000  1.0
  H  H695  1  0.33780000  0.28630000  0.15320000  1.0
  H  H696  1  0.78630000  0.83780000  0.65320000  1.0
  H  H697  1  0.31540000  0.78630000  0.15320000  1.0
  H  H698  1  0.86690000  0.31540000  0.65320000  1.0
  H  H699  1  0.83780000  0.86690000  0.15320000  1.0
  H  H700  1  0.63310000  0.66220000  0.34680000  1.0
  H  H701  1  0.71370000  0.18460000  0.34680000  1.0
  H  H702  1  0.18460000  0.63310000  0.84680000  1.0
  H  H703  1  0.66220000  0.71370000  0.84680000  1.0
  H  H704  1  0.08890000  0.04970000  0.09060000  1.0
  H  H705  1  0.54090000  0.08890000  0.59060000  1.0
  H  H706  1  0.00170000  0.54090000  0.09060000  1.0
  H  H707  1  0.04970000  0.00170000  0.59060000  1.0
  H  H708  1  0.49830000  0.45030000  0.90940000  1.0
  H  H709  1  0.41110000  0.95910000  0.90940000  1.0
  H  H710  1  0.95910000  0.49830000  0.40940000  1.0
  H  H711  1  0.45030000  0.41110000  0.40940000  1.0
  H  H712  1  0.91110000  0.95030000  0.90940000  1.0
  H  H713  1  0.45910000  0.91110000  0.40940000  1.0
  H  H714  1  0.99830000  0.45910000  0.90940000  1.0
  H  H715  1  0.95030000  0.99830000  0.40940000  1.0
  H  H716  1  0.50170000  0.54970000  0.09060000  1.0
  H  H717  1  0.58890000  0.04090000  0.09060000  1.0
  H  H718  1  0.04090000  0.50170000  0.59060000  1.0
  H  H719  1  0.54970000  0.58890000  0.59060000  1.0
  H  H720  1  0.11430000  0.13260000  0.11960000  1.0
  H  H721  1  0.48700000  0.11430000  0.61960000  1.0
  H  H722  1  0.00530000  0.48700000  0.11960000  1.0
  H  H723  1  0.13260000  0.00530000  0.61960000  1.0
  H  H724  1  0.49470000  0.36740000  0.88040000  1.0
  H  H725  1  0.38570000  0.01300000  0.88040000  1.0
  H  H726  1  0.01300000  0.49470000  0.38040000  1.0
  H  H727  1  0.36740000  0.38570000  0.38040000  1.0
  H  H728  1  0.88570000  0.86740000  0.88040000  1.0
  H  H729  1  0.51300000  0.88570000  0.38040000  1.0
  H  H730  1  0.99470000  0.51300000  0.88040000  1.0
  H  H731  1  0.86740000  0.99470000  0.38040000  1.0
  H  H732  1  0.50530000  0.63260000  0.11960000  1.0
  H  H733  1  0.61430000  0.98700000  0.11960000  1.0
  H  H734  1  0.98700000  0.50530000  0.61960000  1.0
  H  H735  1  0.63260000  0.61430000  0.61960000  1.0
  H  H736  1  0.03240000  0.09760000  0.08640000  1.0
  H  H737  1  0.48880000  0.03240000  0.58640000  1.0
  H  H738  1  0.05400000  0.48880000  0.08640000  1.0
  H  H739  1  0.09760000  0.05400000  0.58640000  1.0
  H  H740  1  0.44600000  0.40240000  0.91360000  1.0
  H  H741  1  0.46760000  0.01120000  0.91360000  1.0
  H  H742  1  0.01120000  0.44600000  0.41360000  1.0
  H  H743  1  0.40240000  0.46760000  0.41360000  1.0
  H  H744  1  0.96760000  0.90240000  0.91360000  1.0
  H  H745  1  0.51120000  0.96760000  0.41360000  1.0
  H  H746  1  0.94600000  0.51120000  0.91360000  1.0
  H  H747  1  0.90240000  0.94600000  0.41360000  1.0
  H  H748  1  0.55400000  0.59760000  0.08640000  1.0
  H  H749  1  0.53240000  0.98880000  0.08640000  1.0
  H  H750  1  0.98880000  0.55400000  0.58640000  1.0
  H  H751  1  0.59760000  0.53240000  0.58640000  1.0
  N  N752  1  0.44846000  0.83471000  0.10340000  1.0
  N  N753  1  0.76869000  0.44846000  0.60340000  1.0
  N  N754  1  0.65494000  0.76869000  0.10340000  1.0
  N  N755  1  0.83471000  0.65494000  0.60340000  1.0
  N  N756  1  0.84506000  0.66529000  0.89660000  1.0
  N  N757  1  0.05154000  0.73131000  0.89660000  1.0
  N  N758  1  0.73131000  0.84506000  0.39660000  1.0
  N  N759  1  0.66529000  0.05154000  0.39660000  1.0
  N  N760  1  0.55154000  0.16529000  0.89660000  1.0
  N  N761  1  0.23131000  0.55154000  0.39660000  1.0
  N  N762  1  0.34506000  0.23131000  0.89660000  1.0
  N  N763  1  0.16529000  0.34506000  0.39660000  1.0
  N  N764  1  0.15494000  0.33471000  0.10340000  1.0
  N  N765  1  0.94846000  0.26869000  0.10340000  1.0
  N  N766  1  0.26869000  0.15494000  0.60340000  1.0
  N  N767  1  0.33471000  0.94846000  0.60340000  1.0
  N  N768  1  0.53322000  0.20191000  0.11910000  1.0
  N  N769  1  0.41719000  0.53322000  0.61910000  1.0
  N  N770  1  0.58588000  0.41719000  0.11910000  1.0
  N  N771  1  0.20191000  0.58588000  0.61910000  1.0
  N  N772  1  0.91412000  0.29809000  0.88090000  1.0
  N  N773  1  0.96678000  0.08281000  0.88090000  1.0
  N  N774  1  0.08281000  0.91412000  0.38090000  1.0
  N  N775  1  0.29809000  0.96678000  0.38090000  1.0
  N  N776  1  0.46678000  0.79809000  0.88090000  1.0
  N  N777  1  0.58281000  0.46678000  0.38090000  1.0
  N  N778  1  0.41412000  0.58281000  0.88090000  1.0
  N  N779  1  0.79809000  0.41412000  0.38090000  1.0
  N  N780  1  0.08588000  0.70191000  0.11910000  1.0
  N  N781  1  0.03322000  0.91719000  0.11910000  1.0
  N  N782  1  0.91719000  0.08588000  0.61910000  1.0
  N  N783  1  0.70191000  0.03322000  0.61910000  1.0
  N  N784  1  0.27511000  0.06414000  0.06684000  1.0
  N  N785  1  0.50270000  0.27511000  0.56684000  1.0
  N  N786  1  0.79173000  0.50270000  0.06684000  1.0
  N  N787  1  0.06414000  0.79173000  0.56684000  1.0
  N  N788  1  0.70827000  0.43586000  0.93316000  1.0
  N  N789  1  0.22489000  0.99730000  0.93316000  1.0
  N  N790  1  0.99730000  0.70827000  0.43316000  1.0
  N  N791  1  0.43586000  0.22489000  0.43316000  1.0
  N  N792  1  0.72489000  0.93586000  0.93316000  1.0
  N  N793  1  0.49730000  0.72489000  0.43316000  1.0
  N  N794  1  0.20827000  0.49730000  0.93316000  1.0
  N  N795  1  0.93586000  0.20827000  0.43316000  1.0
  N  N796  1  0.29173000  0.56414000  0.06684000  1.0
  N  N797  1  0.77511000  0.00270000  0.06684000  1.0
  N  N798  1  0.00270000  0.29173000  0.56684000  1.0
  N  N799  1  0.56414000  0.77511000  0.56684000  1.0
  O  O800  1  0.33720000  0.02670000  0.18472000  1.0
  O  O801  1  0.65802000  0.33720000  0.68472000  1.0
  O  O802  1  0.84752000  0.65802000  0.18472000  1.0
  O  O803  1  0.02670000  0.84752000  0.68472000  1.0
  O  O804  1  0.65248000  0.47330000  0.81528000  1.0
  O  O805  1  0.16280000  0.84198000  0.81528000  1.0
  O  O806  1  0.84198000  0.65248000  0.31528000  1.0
  O  O807  1  0.47330000  0.16280000  0.31528000  1.0
  O  O808  1  0.66280000  0.97330000  0.81528000  1.0
  O  O809  1  0.34198000  0.66280000  0.31528000  1.0
  O  O810  1  0.15248000  0.34198000  0.81528000  1.0
  O  O811  1  0.97330000  0.15248000  0.31528000  1.0
  O  O812  1  0.34752000  0.52670000  0.18472000  1.0
  O  O813  1  0.83720000  0.15802000  0.18472000  1.0
  O  O814  1  0.15802000  0.34752000  0.68472000  1.0
  O  O815  1  0.52670000  0.83720000  0.68472000  1.0
  O  O816  1  0.22970000  0.10331000  0.18592000  1.0
  O  O817  1  0.58261000  0.22970000  0.68592000  1.0
  O  O818  1  0.95622000  0.58261000  0.18592000  1.0
  O  O819  1  0.10331000  0.95622000  0.68592000  1.0
  O  O820  1  0.54378000  0.39669000  0.81408000  1.0
  O  O821  1  0.27030000  0.91739000  0.81408000  1.0
  O  O822  1  0.91739000  0.54378000  0.31408000  1.0
  O  O823  1  0.39669000  0.27030000  0.31408000  1.0
  O  O824  1  0.77030000  0.89669000  0.81408000  1.0
  O  O825  1  0.41739000  0.77030000  0.31408000  1.0
  O  O826  1  0.04378000  0.41739000  0.81408000  1.0
  O  O827  1  0.89669000  0.04378000  0.31408000  1.0
  O  O828  1  0.45622000  0.60331000  0.18592000  1.0
  O  O829  1  0.72970000  0.08261000  0.18592000  1.0
  O  O830  1  0.08261000  0.45622000  0.68592000  1.0
  O  O831  1  0.60331000  0.72970000  0.68592000  1.0
  O  O832  1  0.42142000  0.14248000  0.20484000  1.0
  O  O833  1  0.56236000  0.42142000  0.70484000  1.0
  O  O834  1  0.78342000  0.56236000  0.20484000  1.0
  O  O835  1  0.14248000  0.78342000  0.70484000  1.0
  O  O836  1  0.71658000  0.35752000  0.79516000  1.0
  O  O837  1  0.07858000  0.93764000  0.79516000  1.0
  O  O838  1  0.93764000  0.71658000  0.29516000  1.0
  O  O839  1  0.35752000  0.07858000  0.29516000  1.0
  O  O840  1  0.57858000  0.85752000  0.79516000  1.0
  O  O841  1  0.43764000  0.57858000  0.29516000  1.0
  O  O842  1  0.21658000  0.43764000  0.79516000  1.0
  O  O843  1  0.85752000  0.21658000  0.29516000  1.0
  O  O844  1  0.28342000  0.64248000  0.20484000  1.0
  O  O845  1  0.92142000  0.06236000  0.20484000  1.0
  O  O846  1  0.06236000  0.28342000  0.70484000  1.0
  O  O847  1  0.64248000  0.92142000  0.70484000  1.0
  O  O848  1  0.31371000  0.21656000  0.20032000  1.0
  O  O849  1  0.48376000  0.31371000  0.70032000  1.0
  O  O850  1  0.88661000  0.48376000  0.20032000  1.0
  O  O851  1  0.21656000  0.88661000  0.70032000  1.0
  O  O852  1  0.61339000  0.28344000  0.79968000  1.0
  O  O853  1  0.18629000  0.01624000  0.79968000  1.0
  O  O854  1  0.01624000  0.61339000  0.29968000  1.0
  O  O855  1  0.28344000  0.18629000  0.29968000  1.0
  O  O856  1  0.68629000  0.78344000  0.79968000  1.0
  O  O857  1  0.51624000  0.68629000  0.29968000  1.0
  O  O858  1  0.11339000  0.51624000  0.79968000  1.0
  O  O859  1  0.78344000  0.11339000  0.29968000  1.0
  O  O860  1  0.38661000  0.71656000  0.20032000  1.0
  O  O861  1  0.81371000  0.98376000  0.20032000  1.0
  O  O862  1  0.98376000  0.38661000  0.70032000  1.0
  O  O863  1  0.71656000  0.81371000  0.70032000  1.0
  O  O864  1  0.40406000  0.87957000  0.02824000  1.0
  O  O865  1  0.64867000  0.40406000  0.52824000  1.0
  O  O866  1  0.62418000  0.64867000  0.02824000  1.0
  O  O867  1  0.87957000  0.62418000  0.52824000  1.0
  O  O868  1  0.87582000  0.62043000  0.97176000  1.0
  O  O869  1  0.09594000  0.85133000  0.97176000  1.0
  O  O870  1  0.85133000  0.87582000  0.47176000  1.0
  O  O871  1  0.62043000  0.09594000  0.47176000  1.0
  O  O872  1  0.59594000  0.12043000  0.97176000  1.0
  O  O873  1  0.35133000  0.59594000  0.47176000  1.0
  O  O874  1  0.37582000  0.35133000  0.97176000  1.0
  O  O875  1  0.12043000  0.37582000  0.47176000  1.0
  O  O876  1  0.12418000  0.37957000  0.02824000  1.0
  O  O877  1  0.90406000  0.14867000  0.02824000  1.0
  O  O878  1  0.14867000  0.12418000  0.52824000  1.0
  O  O879  1  0.37957000  0.90406000  0.52824000  1.0
  O  O880  1  0.41839000  0.14630000  0.03560000  1.0
  O  O881  1  0.38930000  0.41839000  0.53560000  1.0
  O  O882  1  0.61721000  0.38930000  0.03560000  1.0
  O  O883  1  0.14630000  0.61721000  0.53560000  1.0
  O  O884  1  0.88279000  0.35370000  0.96440000  1.0
  O  O885  1  0.08161000  0.11070000  0.96440000  1.0
  O  O886  1  0.11070000  0.88279000  0.46440000  1.0
  O  O887  1  0.35370000  0.08161000  0.46440000  1.0
  O  O888  1  0.58161000  0.85370000  0.96440000  1.0
  O  O889  1  0.61070000  0.58161000  0.46440000  1.0
  O  O890  1  0.38279000  0.61070000  0.96440000  1.0
  O  O891  1  0.85370000  0.38279000  0.46440000  1.0
  O  O892  1  0.11721000  0.64630000  0.03560000  1.0
  O  O893  1  0.91839000  0.88930000  0.03560000  1.0
  O  O894  1  0.88930000  0.11721000  0.53560000  1.0
  O  O895  1  0.64630000  0.91839000  0.53560000  1.0
  Zn  Zn896  1  0.31539800  0.11363200  0.17314800  1.0
  Zn  Zn897  1  0.55951600  0.31539800  0.67314800  1.0
  Zn  Zn898  1  0.85775000  0.55951600  0.17314800  1.0
  Zn  Zn899  1  0.11363200  0.85775000  0.67314800  1.0
  Zn  Zn900  1  0.64225000  0.38636800  0.82685200  1.0
  Zn  Zn901  1  0.18460200  0.94048400  0.82685200  1.0
  Zn  Zn902  1  0.94048400  0.64225000  0.32685200  1.0
  Zn  Zn903  1  0.38636800  0.18460200  0.32685200  1.0
  Zn  Zn904  1  0.68460200  0.88636800  0.82685200  1.0
  Zn  Zn905  1  0.44048400  0.68460200  0.32685200  1.0
  Zn  Zn906  1  0.14225000  0.44048400  0.82685200  1.0
  Zn  Zn907  1  0.88636800  0.14225000  0.32685200  1.0
  Zn  Zn908  1  0.35775000  0.61363200  0.17314800  1.0
  Zn  Zn909  1  0.81539800  0.05951600  0.17314800  1.0
  Zn  Zn910  1  0.05951600  0.35775000  0.67314800  1.0
  Zn  Zn911  1  0.61363200  0.81539800  0.67314800  1.0
