data_I
_chemical_name_common  'test_write_'
_cell_length_a 10.00000
_cell_length_b 10.00000
_cell_length_c 10.00000
_cell_angle_alpha 90.00000
_cell_angle_beta  90.00000
_cell_angle_gamma 90.00000
_space_group_name_H-M_alt      'P 1'


loop_
_space_group_symop_operation_xyz
  'x, y, z'

loop_
_atom_site_label
_atom_site_fract_x
_atom_site_fract_y
_atom_site_fract_z
_atom_site_type_symbol
Cu         1.0      0.0      0.0    Cu
O         0.85      0.0      0.0     O
C          0.7      0.0      0.0     C
H         0.65     -0.1      0.0     H
H         0.65      0.0      0.1     H
H         0.65     0.05     -0.1     H
